%%%%%%%%%%%%%%%%%%%%%%%%%%%%%%%%%%%%%%%%%%%%%%%%%%%%%%%%%%%%%%%%%%%%%%%%%%%%%%%%
%                                                                              %
% SU2 configuration file                                                       %
% Case description: 2D study of a diverterless supersonic intake               %
%                                                                              %
%%%%%%%%%%%%%%%%%%%%%%%%%%%%%%%%%%%%%%%%%%%%%%%%%%%%%%%%%%%%%%%%%%%%%%%%%%%%%%%%

% ------------- DIRECT, ADJOINT, AND LINEARIZED PROBLEM DEFINITION ------------%
%
% Physical governing equations (EULER, NAVIER_STOKES,
%                               WAVE_EQUATION, HEAT_EQUATION, FEM_ELASTICITY,
%                               POISSON_EQUATION)
SOLVER= RANS
%
% If Navier-Stokes, kind of turbulent model (NONE, SA)
KIND_TURB_MODEL= SA
%
% Specify versions/corrections of the SA model (NEGATIVE, EDWARDS, WITHFT2, QCR2000, COMPRESSIBILITY, ROTATION, BCM, EXPERIMENTAL)
SA_OPTIONS= COMPRESSIBILITY
%
% Mathematical problem (DIRECT, CONTINUOUS_ADJOINT)
MATH_PROBLEM= DIRECT
%
% Restart solution (NO, YES)
RESTART_SOL= NO
%

% -------------------- COMPRESSIBLE FREE-STREAM DEFINITION -------------------%
%
% Mach number (non-dimensional, based on the free-stream values)
% MACH_NUMBER= 0.6
MACH_NUMBER= 1.6
%
% Angle of attack (degrees)
AOA= 0.0
%
% Side-slip angle (degrees)
SIDESLIP_ANGLE= 0.0
%
% Free-stream temperature (288.15 K by default)
FREESTREAM_TEMPERATURE= 288.15
%
% Free-stream pressure (101325.0 N/m^2 by default)  
FREESTREAM_PRESSURE= 101325.0
%
% Reynolds number (non-dimensional, based on the free-stream values)
REYNOLDS_NUMBER= 28100342.32
%
% Reynolds length (in meters)
REYNOLDS_LENGTH= 1.0

REF_DIMENSIONALIZATION= FREESTREAM_VEL_EQ_ONE	   
%


% ---------------------- REFERENCE VALUE DEFINITION ---------------------------%
%
% DA FARE QUANDO SI CONOSCONO LE CARATTERISTICHE DELLA MESH
% Reference origin for moment computation
REF_ORIGIN_MOMENT_X = 0.00 
REF_ORIGIN_MOMENT_Y = 0.00
REF_ORIGIN_MOMENT_Z = 0.00
%
% Reference length for pitching, rolling, and yawing non-dimensional moment
REF_LENGTH= 1.0
%
% Reference area for force coefficients (0 implies automatic calculation)
REF_AREA= 1.0

% -------------------- BOUNDARY CONDITION DEFINITION --------------------------%
%
%
% Navier-Stokes wall boundary marker(s) (NONE = no marker)
MARKER_HEATFLUX= ( lower_wall, 0.0 , CONVERGENT, 0.0 )
%
%
% Navier-Stokes (no-slip), isothermal wall marker(s) (NONE = no marker)
% Format: ( marker name, constant wall temperature (K), ... )
MARKER_ISOTHERMAL = ( NONE )
%
%
% Inlet boundary type (TOTAL_CONDITIONS, MASS_FLOW)
% We define total conditions using isentropic relationships starting from free-stream values of T and P 
INLET_TYPE= TOTAL_CONDITIONS
%
% Inlet boundary marker(s) (NONE = no marker) 
% Format: ( inlet marker, total temperature, total pressure, flow_direction_x, 
%           flow_direction_y, flow_direction_z, ... ) where flow_direction is
%           a unit vector.
% Default: Mach ~ 0.1
% MARKER_INLET= ( inlet, 288.6, 102010.0, 1.0, 0.0, 0.0 )
% Comment above line and uncomment next for  Mach ~ 0.6 (subsonic)
% MARKER_INLET= ( inlet, 308.8968, 129240.4201, 1.0, 0.0, 0.0 )
% Comment above line and uncomment next for  Mach ~ 1.6 (supersonic)
MARKER_INLET= ( inlet, 435.6828, 430673.2339, 1.0, 0.0, 0.0 )
%
% Outlet boundary marker(s) (NONE = no marker)
% Format: ( outlet marker, back pressure (static), ... )
%
MARKER_OUTLET= (ENGINE, 3,outlet,3)
%MARKER_SUPERSONIC_OUTLET = (outlet)
%
% Specify a static backpressure (in Pascals) that matches the expected conditions downstream of the intake (ENGINE).
%
%
%
% ------------------------ SURFACES IDENTIFICATION ----------------------------%
%
% Marker(s) of the surface to be plotted or designed
MARKER_PLOTTING= ( lower_wall, CONVERGENT )
%
% Marker(s) of the surface where the functional (Cd, Cl, etc.) will be evaluated
MARKER_MONITORING= ( lower_wall, CONVERGENT )
%

% ------------- COMMON PARAMETERS DEFINING THE NUMERICAL METHOD ---------------%
%
% Numerical method for spatial gradients (GREEN_GAUSS, WEIGHTED_LEAST_SQUARES)
% se la mesh non ha parti troppo skewed si può provare Green Gauss che dovrebbe
% essere più veloce
NUM_METHOD_GRAD= WEIGHTED_LEAST_SQUARES						
%
% Courant-Friedrichs-Lewy condition of the finest grid
CFL_NUMBER= 0.1
%
% Adaptive CFL number (NO, YES)
CFL_ADAPT= NO
%
% Parameters of the adaptive CFL number (factor down, factor up, CFL min value,
%                                        CFL max value, acceptable linear solver convergence)
% consider tightening 0.001 and lowering 100
%CFL_ADAPT_PARAM= ( 0.1, 1.5, 0.5, 100, 0.001 )
%
% Runge-Kutta alpha coefficients
% These coefficients correspond to a three-stage Low-Storage Runge-Kutta (LSRK) scheme.
% This method is effective for explicit time-stepping and is widely used for compressible flows.
RK_ALPHA_COEFF= ( 0.66667, 0.66667, 1.000000 )
%
% Number of total iterations
% monitoring of residuals may be a good method to reduce this high iter
ITER= 999999

% ------------------------ LINEAR SOLVER DEFINITION ---------------------------%
%
% Linear solver for implicit formulations (BCGSTAB, FGMRES)
LINEAR_SOLVER= FGMRES
%
% Preconditioner of the Krylov linear solver (ILU, JACOBI, LINELET, LU_SGS)
% LU-SGS may be an alternative ( compromise btw speed and robustness, ILU is computationally expensive ) 
LINEAR_SOLVER_PREC= ILU
%
% Minimum error of the linear solver for implicit formulations
LINEAR_SOLVER_ERROR= 1E-6
% (1e-10)

% ----------- SLOPE LIMITER AND DISSIPATION SENSOR DEFINITION -----------------%
%
% Monotonic Upwind Scheme for Conservation Laws (TVD) in the flow equations.
%           Required for 2nd order upwind schemes (NO, YES)
MUSCL_FLOW= YES
%
% Slope limiter (NONE, VENKATAKRISHNAN, VENKATAKRISHNAN_WANG, BARTH_JESPERSEN, VAN_ALBADA_EDGE,
%                NISHIKAWA_R3, NISHIKAWA_R4, NISHIKAWA_R5)
SLOPE_LIMITER_FLOW= VENKATAKRISHNAN
%
% Same as MUSCL_FLOW but for turbulence.
MUSCL_TURB= NO
%
% Slope limiter (same as SLOPE_LIMITER_FLOW except VAN_ALBADA_EDGE)
%
SLOPE_LIMITER_TURB= VENKATAKRISHNAN
%
% Coefficient for Venkatakrishnan-type limiters (upwind scheme).
% A larger value decreases the extent of limiting, values approaching zero
% cause lower-order approximation to the solution (0.05 by default)
VENKAT_LIMITER_COEFF= 0.05
% VENKAT_LIMITER_COEFF has error so K_SU2 == (K*hi)^3, not K; so:  
% VENKAT_LIMITER_COEFF must be multiplied by rij (advancement or regression of grid spacing)
% See CFD_seminar_Caccia
%
% Reference coefficient for detecting sharp edges (3.0 by default).
REF_SHARP_EDGES = 3.0
% lower = more aggressive at sharp edges 
%
% Coefficient for the adjoint sharp edges limiter (3.0 by default).
ADJ_SHARP_LIMITER_COEFF= 3.0
%
% Remove sharp edges from the sensitivity evaluation (NO, YES)
SENS_REMOVE_SHARP = NO
%

% -------------------- FLOW NUMERICAL METHOD DEFINITION -----------------------%
%
% Convective numerical method (JST, JST_KE, JST_MAT, LAX-FRIEDRICH, ROE, AUSM,
%                              AUSMPLUSUP, AUSMPLUSUP2, AUSMPLUSM, HLLC, TURKEL_PREC,
%                              SW, MSW, FDS, SLAU, SLAU2, L2ROE, LMROE)
CONV_NUM_METHOD_FLOW= ROE
% (JST)
% if JST: JST_SENSOR_COEFF= (0.5,0.02) # (2nd ordeer term (shock term), 4th order term (smooth term))
% Coeff: 2nd: if shock too smoth: 0.4, if oscillations appear: 0.6; 4th if sol too damped: 0.01, if oscillations appear: 0.03
% 
%
% Roe Low Dissipation function for Hybrid RANS/LES simulations (FD, NTS, NTS_DUCROS)
ROE_LOW_DISSIPATION= FD
%
% Roe dissipation coefficient
ROE_KAPPA= 0.5
%

% -------------------- TURBULENT NUMERICAL METHOD DEFINITION ------------------%
%
% Convective numerical method (SCALAR_UPWIND)
CONV_NUM_METHOD_TURB= SCALAR_UPWIND
%
% Time discretization (EULER_IMPLICIT)
TIME_DISCRE_TURB= EULER_IMPLICIT
%

% --------------------------- CONVERGENCE PARAMETERS --------------------------%
%
% Convergence criteria (CAUCHY, RESIDUAL)
CONV_FIELD= RMS_DENSITY
%
% Min value of the residual (log10 of the residual)
CONV_RESIDUAL_MINVAL= -5
% (-14)
%
% Start convergence criteria at iteration number
CONV_STARTITER= 10
% Adjust if needed to avoid premature convergence evaluations.
%
% Number of elements to apply the criteria
CONV_CAUCHY_ELEMS= 100
% Adjust if needed to avoid premature convergence evaluations.
%
% Epsilon to control the series convergence
CONV_CAUCHY_EPS= 1E-10
%

% ------------------------- INPUT/OUTPUT FILE INFORMATION --------------------------%
%
% Mesh input file
MESH_FILENAME= mesh.su2
%
% Mesh input file format (SU2, CGNS)
MESH_FORMAT= SU2
%
% Mesh output file
MESH_OUT_FILENAME= mesh_out.su2
%
% Restart flow input file
SOLUTION_FILENAME= restart_flow.dat
%
% Restart adjoint input file
SOLUTION_ADJ_FILENAME= solution_adj.dat
%
% Output tabular file format (TECPLOT, CSV)
TABULAR_FORMAT= CSV
%
% Files to output
% Possible formats : (TECPLOT_ASCII, TECPLOT, SURFACE_TECPLOT_ASCII,
%  SURFACE_TECPLOT, CSV, SURFACE_CSV, PARAVIEW_ASCII, PARAVIEW_LEGACY, SURFACE_PARAVIEW_ASCII,
%  SURFACE_PARAVIEW_LEGACY, PARAVIEW, SURFACE_PARAVIEW, RESTART_ASCII, RESTART, CGNS, SURFACE_CGNS, STL_ASCII, STL_BINARY)
% default : (RESTART, PARAVIEW, SURFACE_PARAVIEW)
OUTPUT_FILES= (RESTART, PARAVIEW, SURFACE_PARAVIEW)
%
% Output file convergence history (w/o extension)
CONV_FILENAME= history
%
% Output file restart flow
RESTART_FILENAME= restart_flow.dat
%
% Output file restart adjoint
RESTART_ADJ_FILENAME= restart_adj.dat
%
% Output file flow (w/o extension) variables
VOLUME_FILENAME= flow
%
% Output file adjoint (w/o extension) variables
VOLUME_ADJ_FILENAME= adjoint
%
% Output Objective function
VALUE_OBJFUNC_FILENAME= of_eval.dat
%
% Output objective function gradient (using continuous adjoint)
GRAD_OBJFUNC_FILENAME= of_grad.dat
%
% Output file surface flow coefficient (w/o extension)
SURFACE_FILENAME= surface_flow
%
% Output file surface adjoint coefficient (w/o extension)
SURFACE_ADJ_FILENAME= surface_adjoint

% ------------------------- SCREEN/HISTORY VOLUME OUTPUT --------------------------%
%
% Screen output fields (use 'SU2_CFD -d <config_file>' to view list of available fields)
%SCREEN_OUTPUT= (INNER_ITER, RMS_DENSITY, RMS_MOMENTUM-X, RMS_MOMENTUM-Y, RMS_ENERGY)
SCREEN_OUTPUT= (INNER_ITER, RMS_DENSITY, DRAG, AVG_CFL)
% Used set fields for the restart and visualization file
VOLUME_OUTPUT= (COORDINATES, SOLUTION, PRIMITIVE, RESIDUAL)
% Allows to see in each coordinate of the domain the solution (rho,vx,vy,E);
% the primitive values (P,T,M,Cp,..) and the residuals (check point of convergent)
%
% History output groups (use 'SU2_CFD -d <config_file>' to view list of available fields)
HISTORY_OUTPUT= (ITER, RMS_RES)
%
% Writing frequency for screen output
SCREEN_WRT_FREQ_INNER= 1
% (5)
%
% list of writing frequencies corresponding to the list in OUTPUT_FILES
OUTPUT_WRT_FREQ= 50
% Reduce if frequent monitoring is necessary, e.g., during early development.
%
% output files
%OUTPUT_FILES= (RESTART, PARAVIEW, SURFACE_PARAVIEW, SURFACE_CSV)
